data_crystal
 
_cell_length_a    33.50030
_cell_length_b    33.50030
_cell_length_c    3.56080
_cell_angle_alpha 90.00000
_cell_angle_beta  90.00000
_cell_angle_gamma 120.00000
 
_symmetry_space_group_name_H-M  'P 6'
 
loop_
_atom_site_label
_atom_site_fract_x
_atom_site_fract_y
_atom_site_fract_z
C1 0.45556 0.28633 0.00000
C2 0.49384 0.32722 0.00000
C3 0.49201 0.36589 0.00000
C4 0.45140 0.36560 0.00000
C5 0.41280 0.32343 0.00000
C6 0.41494 0.28463 0.00000
C7 0.44989 0.40847 0.00000
C8 0.48907 0.44958 0.00000
C9 0.45965 0.24654 0.00000
N10 0.42548 0.20718 0.00000
C11 0.16660 0.42645 0.00000
C12 0.16518 0.46566 0.00000
C13 0.12692 0.38669 0.00000
C14 0.12520 0.46497 0.00000
C15 0.08438 0.42503 0.00000
C16 0.08658 0.38576 0.00000
C17 0.04068 0.42461 0.00000
C18 0.03941 0.46416 0.00000
H19 0.52574 0.32943 0.00000
H20 0.52366 0.39518 0.00000
H21 0.38014 0.31864 0.00000
H22 0.38467 0.25328 0.00000
H23 0.51905 0.44968 0.00000
H24 0.49254 0.25157 0.00000
H25 0.19454 0.49751 0.00000
H26 0.12720 0.35600 0.00000
H27 0.12820 0.49692 0.00000
H28 0.05787 0.35357 0.00000
H29 0.06958 0.49394 0.00000
H30 0.37802 0.37802 0.00000
C31 0.40927 0.40927 0.00000
C32 0.49041 0.49041 0.00000
C33 0.00000 0.38495 0.00000
C34 0.00000 0.46571 0.00000
H35 0.00000 0.35470 0.00000
