data_crystal
 
_cell_length_a    17.31680
_cell_length_b    17.31680
_cell_length_c    3.49640
_cell_angle_alpha 90.00000
_cell_angle_beta  120.00000
_cell_angle_gamma 90.00000
 
_symmetry_space_group_name_H-M  'P 6'
 
loop_
_atom_site_label
_atom_site_fract_x
_atom_site_fract_y
_atom_site_fract_z
C1 -0.59306 -0.38954 0.5
C2 -0.62905 -0.48305 0.5
C3 -0.57682 -0.52391 0.5
C4 -0.48395 -0.47287 0.5
C5 -0.44578 -0.38064 0.5
C6 -0.49875 -0.34065 0.5
C7 -0.42422 -0.5115 0.5
C8 -0.45202 -0.59912 0.5
C9 -0.38966 -0.63357 0.5
N10 -0.42249 -0.72274 0.5
H11 -0.69665 -0.52902 0.5
H12 -0.61068 -0.59579 0.5
H13 -0.37389 -0.33861 0.5
H14 -0.461 -0.27169 0.5
H15 -0.35306 -0.46493 0.5
H16 -0.52188 -0.64847 0.5
P17 -0.66667 -0.33333 0.5
