data_crystal
 
_cell_length_a    17.70100
_cell_length_b    17.70100
_cell_length_c    3.49120
_cell_angle_alpha 90.00000
_cell_angle_beta  120.00000
_cell_angle_gamma 90.00000
 
_symmetry_space_group_name_H-M  'P 6'
 
loop_
_atom_site_label
_atom_site_fract_x
_atom_site_fract_y
_atom_site_fract_z
C1 -0.59046 -0.38362 0.5
C2 -0.62222 -0.47448 0.5
C3 -0.56826 -0.5113 0.5
C4 -0.47746 -0.45852 0.5
C5 -0.44367 -0.36862 0.5
C6 -0.49841 -0.33276 0.5
C7 -0.4149 -0.49201 0.5
C8 -0.43782 -0.57709 0.5
C9 -0.38128 -0.62046 0.5
C10 -0.42572 -0.71383 0.5
C11 -0.23965 -0.47993 0.5
N12 -0.19824 -0.40441 0.5
H13 -0.68778 -0.52134 0.5
H14 -0.59978 -0.58149 0.5
H15 -0.37366 -0.32507 0.5
H16 -0.4637 -0.2652 0.5
H17 -0.34861 -0.44143 0.5
H18 -0.50667 -0.62044 0.5
P19 -0.66667 -0.33333 0.5
