data_crystal
 
_cell_length_a    45.00000
_cell_length_b    45.00000
_cell_length_c    3.50100
_cell_angle_alpha 90.00000
_cell_angle_beta  120.00000
_cell_angle_gamma 90.00000
 
_symmetry_space_group_name_H-M  'P 6/m'
 
loop_
_atom_site_label
_atom_site_fract_x
_atom_site_fract_y
_atom_site_fract_z
C1 0.38482 0.55974 2.5
C2 0.40255 0.54157 2.5
C3 0.43866 0.55922 2.5
C4 0.45661 0.59527 2.5
C5 0.43882 0.61337 2.5
C6 0.40293 0.59564 2.5
C7 0.45785 0.54045 2.5
O8 0.49413 0.55775 2.5
C9 0.50027 0.53057 2.5
C10 0.46976 0.50011 2.5
N11 0.4425 0.50698 2.5
C12 0.46807 0.46819 2.5
C13 0.38467 0.61427 2.5
C14 0.36937 0.62988 2.5
C15 0.35111 0.64852 2.5
C16 0.36925 0.68444 2.5
H17 0.35703 0.54587 2.5
H18 0.38816 0.51378 2.5
H19 0.48443 0.60926 2.5
H20 0.45299 0.64116 2.5
H21 0.44408 0.44422 2.5
H22 0.39705 0.6982 2.5
