data_crystal
 
_cell_length_a    37.78980
_cell_length_b    37.78980
_cell_length_c    3.75150
_cell_angle_alpha 90.00000
_cell_angle_beta  90.00000
_cell_angle_gamma 120.00000
 
_symmetry_space_group_name_H-M  'P1'
 
loop_
_atom_site_label
_atom_site_fract_x
_atom_site_fract_y
_atom_site_fract_z
H1 1.12618 -0.57656 -0.0106
H2 1.24325 -0.46759 0.09154
H3 1.13507 -0.45753 0.06549
H4 1.26688 -0.41208 0.42864
H5 1.31057 -0.33675 0.45786
H6 1.21944 -0.32128 -0.08881
H7 1.17695 -0.39593 -0.15588
H8 1.15837 -0.603 0.3146
H9 1.19128 -0.6454 0.29044
H10 1.29356 -0.54787 -0.26479
H11 1.26057 -0.50604 -0.26132
H12 1.25108 -0.26428 0.32358
H13 1.36426 -0.21657 0.22602
H14 1.31758 -0.11408 0.20414
H15 1.43067 -0.06664 0.08464
H16 1.3239 -0.5797 -0.000607
H17 1.29426 -0.7417 0.14549
H18 1.37439 -0.59488 -0.22488
H19 1.34478 -0.75651 -0.11197
H20 1.37527 -0.78933 -0.32792
H21 1.40983 -0.82971 -0.32879
H22 1.51347 -0.72953 0.20263
H23 1.47843 -0.68891 0.19633
H24 1.43126 -0.86483 0.06905
H25 1.5404 -0.87206 -0.06246
H26 1.54418 -0.75583 -0.19043
H27 1.40401 -0.92652 -0.22791
H28 1.3633 -1.00183 -0.15011
H29 1.46463 -1.00194 0.36495
H30 1.50515 -0.9266 0.31091
H31 1.59536 -0.83919 -0.43543
H32 1.67032 -0.80366 -0.46597
H33 1.67747 -0.69791 0.06365
H34 1.6038 -0.73371 0.12101
H35 1.74033 -0.68291 0.14796
H36 1.78695 -0.73489 -0.34865
H37 1.88625 -0.5918 0.02734
H38 1.93436 -0.64389 -0.44224
H39 1.24844 -0.68175 0.45171
H40 1.42092 -0.65556 -0.51179
H41 1.47509 -0.58612 -0.41264
H42 1.4424 -0.57594 -0.10624
H43 1.22599 -0.75971 0.01574
H44 1.19368 -0.7505 0.33518
H45 1.82967 -0.58699 0.33565
H46 1.76324 -0.62105 -0.23811
H47 1.77493 -0.57975 0.09564
H48 1.84376 -0.7393 -0.66158
H49 1.89783 -0.74747 -0.41813
H50 1.90935 -0.70664 -0.08021
H51 1.24765 -0.16983 0.39595
H52 1.23248 -0.23683 -0.14984
H53 1.19518 -0.22382 0.04676
H54 1.43421 -0.16083 0.03239
H55 1.48692 -0.10608 0.37456
H56 1.44962 -0.09292 0.56922
H57 1.07352 -0.49338 0.29194
H58 0.99931 -0.52718 0.23767
H59 0.99782 -0.62727 -0.34285
H60 1.07157 -0.59238 -0.32682
C1 1.12496 -0.51945 0.01861
C2 1.14428 -0.54336 0.01359
C3 1.18691 -0.52494 0.03911
C4 1.21047 -0.48177 0.0745
C5 1.19223 -0.4569 0.0887
C6 1.14942 -0.47624 0.05823
C7 1.20685 -0.5508 0.03009
C8 1.21793 -0.41089 0.1319
C9 1.25623 -0.39305 0.30452
C10 1.28112 -0.35004 0.32791
C11 1.26776 -0.32393 0.19507
C12 1.22943 -0.34117 0.02959
C13 1.20501 -0.38411 -0.00588
C14 1.18747 -0.59078 0.18009
C15 1.20625 -0.61491 0.17094
C16 1.24504 -0.59942 0.02196
C17 1.26451 -0.55974 -0.13123
C18 1.24551 -0.53578 -0.12865
C19 1.28271 -0.25332 0.25901
C20 1.31186 -0.20818 0.2316
C21 1.35396 -0.19419 0.21855
C22 1.38321 -0.15195 0.20479
C23 1.37006 -0.12239 0.19324
C24 1.32797 -0.13639 0.21188
C25 1.29873 -0.17859 0.22447
C26 1.39894 -0.07743 0.14204
C27 1.30194 -0.61251 0.00979
C28 1.31761 -0.64189 -0.00242
C29 1.29432 -0.68412 0.099
C30 1.31138 -0.7098 0.05772
C31 1.35102 -0.69456 -0.07523
C32 1.37442 -0.65234 -0.17429
C33 1.35728 -0.62672 -0.13559
C34 1.36674 -0.72379 -0.09317
C35 1.42413 -0.7363 -0.05605
C36 1.40491 -0.77633 -0.20336
C37 1.4248 -0.79944 -0.20492
C38 1.46426 -0.78298 -0.06074
C39 1.48348 -0.74275 0.0826
C40 1.46357 -0.71967 0.08226
C41 1.48533 -0.80761 -0.06155
C42 1.46337 -0.85034 0.00367
C43 1.48259 -0.87428 -0.00665
C44 1.52508 -0.85419 -0.06228
C45 1.54797 -0.81113 -0.11637
C46 1.52744 -0.78847 -0.12661
C47 1.45805 -0.92016 0.036
C48 1.59332 -0.78951 -0.15227
C49 1.41754 -0.94223 -0.09033
C50 1.39433 -0.98518 -0.05123
C51 1.41125 -1.00719 0.10334
C52 1.45161 -0.98563 0.22986
C53 1.47473 -0.94248 0.1983
C54 1.61292 -0.80888 -0.31572
C55 1.65561 -0.78865 -0.33631
C56 1.67958 -0.7489 -0.19571
C57 1.66016 -0.72898 -0.04012
C58 1.6176 -0.74926 -0.0151
C59 1.74992 -0.69684 -0.05435
C60 1.79424 -0.67859 -0.12134
C61 1.80867 -0.70343 -0.27004
C62 1.85058 -0.68916 -0.30409
C63 1.8791 -0.6482 -0.19718
C64 1.86458 -0.62325 -0.05214
C65 1.82272 -0.6375 -0.01819
C66 1.92368 -0.63026 -0.24657
C67 1.25359 -0.70131 0.26957
C68 1.41533 -0.63538 -0.3414
C69 1.44579 -0.59681 -0.2851
C70 1.22286 -0.7395 0.2045
C71 1.81098 -0.60788 0.12545
C72 1.78118 -0.60292 -0.01283
C73 1.86228 -0.71878 -0.4487
C74 1.89168 -0.72427 -0.30855
C75 1.25533 -0.18914 0.23484
C76 1.22605 -0.21855 0.03501
C77 1.42661 -0.14132 0.19152
C78 1.45601 -0.11147 0.38721
C79 1.07941 -0.5397 -0.01436
C80 1.05794 -0.52159 0.13796
C81 1.01539 -0.54102 0.11219
C82 0.99306 -0.57908 -0.06006
C83 1.01398 -0.59769 -0.21031
C84 1.05663 -0.57791 -0.1925
N1 1.29474 -0.28003 0.20758
N2 1.26308 -0.62532 0.02276
N3 1.38594 -0.05109 0.14453
N4 1.40538 -0.71101 -0.05184
N5 1.72324 -0.72937 -0.22875
N6 1.9493 -0.59856 -0.05765
