data_crystal
 
_cell_length_a    31.43800
_cell_length_b    31.43800
_cell_length_c    7.67040
_cell_angle_alpha 90.00000
_cell_angle_beta  90.00000
_cell_angle_gamma 90.00000
 
_symmetry_space_group_name_H-M  'P 4'
 
loop_
_atom_site_label
_atom_site_fract_x
_atom_site_fract_y
_atom_site_fract_z
C1 0.07283 0.02984 0.24561
C2 0.0912 0.99947 0.35865
C3 0.11594 0.01185 0.50057
C4 0.12288 0.05517 0.53432
C5 0.10765 0.08529 0.41581
C6 0.08347 0.07297 0.27203
N7 0.14281 0.0703 0.69079
C8 0.15615 0.04772 0.82174
C9 0.17392 0.06882 0.97684
C10 0.19238 0.04436 0.11003
C11 0.2105 0.06419 0.25529
C12 0.20974 0.10863 0.26984
C13 0.19018 0.13298 0.13965
C14 0.17253 0.1133 0.99392
C15 0.23233 0.13062 0.41189
C16 0.20886 0.1545 0.53231
C17 0.22936 0.18175 0.6482
C18 0.42771 0.5353 0.73673
C19 0.43693 0.56961 0.8494
C20 0.4047 0.59048 0.94023
C21 0.36215 0.57772 0.92042
C22 0.35304 0.54157 0.82181
C23 0.38521 0.52051 0.73093
N24 0.32738 0.6012 -0.00589
C25 0.32879 0.64119 0.036
C26 0.29135 0.66292 0.10891
C27 0.29603 0.70428 0.17369
C28 0.26166 0.72522 0.24968
C29 0.22166 0.70537 0.26066
C30 0.21663 0.66436 0.19042
C31 0.25125 0.64321 0.11576
C32 0.1867 0.72628 0.358
C33 0.16103 0.70251 0.47207
C34 0.13241 0.72281 0.5849
C35 0.89265 0.30307 0.70889
N36 0.92525 0.32912 0.6558
O37 0.8846 0.30016 0.86385
C38 0.93788 0.33623 0.47361
C39 0.93897 0.38399 0.43615
C40 0.95305 0.39406 0.24679
N41 0.99247 0.37027 0.19968
C42 0.99735 0.32476 0.25118
C43 0.98199 0.31743 0.44109
C44 0.96368 0.44199 0.23883
C45 0.91576 0.38601 0.11843
C46 0.04529 0.31418 0.24583
C47 0.97463 0.29353 0.12467
O48 0.00154 0.37543 0.02757
C49 0.98404 0.03736 0.8805
C50 0.94716 0.02045 0.99765
H51 0.08436 0.96597 0.34493
H52 0.12786 0.98728 0.58567
H53 0.11287 0.11881 0.43899
H54 0.07159 0.09798 0.18885
H55 0.15404 0.01344 0.82144
H56 0.19341 0.01001 0.10017
H57 0.22542 0.04505 0.35521
H58 0.18968 0.16737 0.14869
H59 0.15814 0.13298 0.8942
H60 0.1745 0.15335 0.53218
H61 0.21028 0.20038 0.73757
H62 0.46903 0.58148 0.86387
H63 0.41329 0.61686 0.02354
H64 0.32049 0.53067 0.80948
H65 0.3758 0.49352 0.65301
H66 0.35734 0.65971 0.01466
H67 0.32665 0.72007 0.16945
H68 0.2669 0.75641 0.30552
H69 0.18608 0.64848 0.19483
H70 0.24668 0.61144 0.06452
H71 0.16459 0.66828 0.47997
H72 0.94291 0.34469 0.75206
H73 0.91506 0.321 0.38421
H74 0.90695 0.39773 0.46191
H75 0.96136 0.3992 0.52991
H76 0.00474 0.33227 0.53433
H77 0.98135 0.28281 0.47034
H78 0.9209 0.00774 0.91565
H79 0.93439 0.04754 0.07428
C80 0.483 0.46312 0.38028
C81 0.4472 0.48015 0.50092
H82 0.43509 0.45348 0.58264
H83 0.4204 0.49205 0.41999
H84 -0.01039 0.02641 0.31909
H85 0.51276 0.52534 0.82087
H86 1.06378 1.53847 1.28292
H87 1.02812 1.54823 1.10371
H88 1.00861 1.55061 1.32362
H89 1.07488 1.6068 0.98214
H90 1.11153 1.59295 1.15083
H91 1.09639 1.64679 1.12448
H92 0.93651 1.66324 1.32873
H93 0.94218 1.68341 1.1107
H94 0.94864 1.71865 1.29378
H95 1.01588 1.70081 0.98721
H96 1.0603 1.70491 1.13324
H97 1.01664 1.73981 1.15702
C98 0 0 0.23235
C99 0.5 0.5 0.73442
