data_crystal
 
_cell_length_a    28.83800
_cell_length_b    28.83800
_cell_length_c    7.11320
_cell_angle_alpha 90.00000
_cell_angle_beta  90.00000
_cell_angle_gamma 90.00000
 
_symmetry_space_group_name_H-M  'P 4'
 
loop_
_atom_site_label
_atom_site_fract_x
_atom_site_fract_y
_atom_site_fract_z
C1 0.0301 0.0281 0.1295
C2 0.0562 0.001 0.251
C3 0.0852 0.0238 0.376
C4 0.0881 0.0737 0.379
C5 0.062 0.1007 0.257
C6 0.033 0.078 0.133
N7 0.1161 0.1008 0.503
C8 0.142 0.091 0.642
C9 0.165 0.1213 -0.224
C10 0.2112 0.1133 -0.161
C11 0.2305 0.1433 -0.032
C12 0.2035 0.1813 0.034
C13 0.1573 0.1893 -0.029
C14 0.138 0.1593 -0.158
C15 0.2232 0.2155 0.16
C16 0.2055 0.2269 0.332
C17 0.2357 0.2623 0.41
C18 0.4719 0.5301 0.6295
C19 0.499 0.5562 -0.249
C20 0.4762 0.5852 -0.124
C21 0.4263 0.5881 -0.121
C22 0.3993 0.562 -0.243
C23 0.422 0.533 0.633
N24 0.3992 0.6161 0.003
C25 0.409 0.642 0.142
C26 0.3787 0.665 0.276
C27 0.3867 0.7112 0.339
C28 0.3567 0.7305 0.468
C29 0.3187 0.7035 0.534
C30 0.3107 0.6573 0.471
C31 0.3407 0.638 0.342
C32 0.2845 0.7232 0.66
C33 0.2731 0.7055 -0.168
C34 0.2377 0.7357 -0.09
C35 0.77756 1.27195 1.05455
N36 0.81157 1.26478 1.08593
O37 0.75455 1.28657 1.1706
H38 0.82176 1.2293 1.13011
C39 0.82738 1.29933 1.061
C40 0.80167 1.34357 1.12296
C41 0.82361 1.3915 1.08837
N42 0.87127 1.39519 0.99183
C43 0.89698 1.35096 0.92988
C44 0.87504 1.30302 0.96446
C45 0.82625 1.40983 1.22997
C46 0.79974 1.41301 0.99504
C47 0.93247 1.35113 1.0005
C48 0.90284 1.35196 0.77143
O49 0.88709 1.42974 0.9669
H50 0.05329 -0.0384 0.24546
H51 0.1073 0.00305 0.47887
H52 0.06499 0.1401 0.26166
H53 0.01108 0.09951 0.03206
H54 0.15014 0.05325 0.67632
H55 0.23165 0.08245 -0.21722
H56 0.26744 0.13745 0.01991
H57 0.13685 0.22015 0.02722
H58 0.10113 0.16448 -0.21185
H59 0.17284 0.209 0.38571
H60 0.22805 0.27756 0.55455
H61 0.47068 0.50083 0.73713
H62 0.53849 0.55451 -0.24909
H63 0.49695 0.6073 -0.02113
H64 0.3599 0.56499 -0.23834
H65 0.40816 0.49645 0.65704
H66 0.40888 0.54499 0.48984
H67 0.36099 0.61789 -0.01451
H68 0.43237 0.67039 0.08322
H69 0.43137 0.62194 0.24617
H70 0.41755 0.73165 0.28278
H71 0.36255 0.76744 0.51991
H72 0.27985 0.63685 0.52722
H73 0.33552 0.60113 0.28815
H74 0.28561 0.67413 -0.08473
H75 0.80962 1.30119 0.91803
H76 0.76619 1.34339 1.05233
H77 0.79598 1.3384 1.28016
H78 0.9007 1.28174 1.05057
H79 0.8699 1.28454 0.82433
H80 0.84638 1.44358 1.21248
H81 0.84505 1.38647 1.33439
H82 0.78995 1.41778 1.28462
H83 0.76693 1.39241 0.96319
H84 0.8183 1.42163 0.85792
H85 0.79012 1.44651 1.07066
H86 0.95986 1.36279 0.89505
H87 0.94107 1.31471 1.0522
H88 0.93197 1.37606 1.12487
H89 0.88167 1.38139 0.70758
H90 0.89151 1.31759 0.70694
H91 0.94121 1.3579 0.74134
C92 0 0 0
C93 0.5 0.5 0.5
