data_crystal
 
_cell_length_a    30.98000
_cell_length_b    24.99000
_cell_length_c    4.04000
_cell_angle_alpha 90.00000
_cell_angle_beta  90.00000
_cell_angle_gamma 90.00000
 
_symmetry_space_group_name_H-M  'P 2'
 
loop_
_atom_site_label
_atom_site_fract_x
_atom_site_fract_y
_atom_site_fract_z
C1 0.45744 0.54538 0.54775
C2 0.4138 0.47145 0.47294
C3 0.38048 0.43424 0.45304
C4 0.38987 0.3798 0.41044
C5 0.43351 0.36406 0.3832
C6 0.46742 0.4004 0.40459
C7 0.01582 0.83242 0.31847
C8 0.03042 0.88603 0.3768
C9 0.10715 0.86082 0.41242
C10 0.1445 0.86671 0.21742
C11 0.10358 0.81421 0.60153
C12 0.17837 0.8307 0.23473
C13 0.1365 0.77658 0.60769
C14 0.17538 0.78579 0.43962
C15 0.24836 0.7662 0.46753
C16 0.28464 0.73057 0.51975
C17 0.27869 0.68038 0.66619
C18 0.32624 0.7457 0.42061
C19 0.31325 0.64591 0.70088
C20 0.36067 0.71046 0.44923
C21 0.35468 0.65957 0.58508
C22 0.13167 0.02712 0.50776
C23 0.07342 0.09725 0.57815
C24 0.08662 0.04358 0.52714
C25 0.55409 0.46413 0.66988
C26 0.59782 0.5233 0.3972
C27 0.63048 0.55605 0.27784
C28 0.61997 0.60098 0.09085
C29 0.57616 0.61072 0.01496
C30 0.54305 0.57867 0.13152
C31 0.97176 0.16646 0.71201
C32 0.95771 0.11181 0.68717
C33 0.88212 0.13294 0.81364
C34 0.84139 0.13711 0.6611
C35 0.89199 0.17246 0.05587
C36 0.81186 0.17595 0.75676
C37 0.86421 0.21439 0.13183
C38 0.82282 0.21586 0.99128
C39 0.75393 0.24568 0.09426
C40 0.72015 0.28582 0.10472
C41 0.7294 0.34094 0.10667
C42 0.67704 0.26915 0.07457
C43 0.69663 0.37769 0.05996
C44 0.64436 0.30609 0.02463
C45 0.65367 0.36101 0.00626
C46 0.85702 0.97629 0.41583
C47 0.91479 0.90721 0.2904
C48 0.90196 0.95979 0.3862
C49 0.5541 0.53583 0.32986
C50 0.59782 0.47666 0.60252
C51 0.63048 0.4439 0.72188
C52 0.61997 0.39897 0.90888
C53 0.57615 0.38923 0.98477
C54 0.54304 0.4213 0.86822
C55 0.97179 0.83349 0.28813
C56 0.95773 0.88814 0.31299
C57 0.88214 0.86699 0.18652
C58 0.84141 0.86281 0.33904
C59 0.89201 0.82748 -0.05571
C60 0.81188 0.82396 0.24334
C61 0.86424 0.78554 -0.13172
C62 0.82284 0.78406 0.00879
C63 0.75395 0.75425 -0.0943
C64 0.72017 0.71412 -0.10486
C65 0.72942 0.65899 -0.10686
C66 0.67707 0.73079 -0.07473
C67 0.69664 0.62224 -0.06022
C68 0.64438 0.69385 -0.02485
C69 0.65368 0.63893 -0.00652
C70 0.85702 0.02363 0.58444
C71 0.91478 0.09272 0.70978
C72 0.90196 0.04014 0.61401
C73 0.45744 0.45459 0.45199
C74 0.4138 0.52852 0.52681
C75 0.38049 0.56573 0.54673
C76 0.38988 0.62018 0.58934
C77 0.43352 0.63591 0.61656
C78 0.46743 0.59956 0.59514
C79 0.01579 0.16755 0.68168
C80 0.03041 0.11395 0.62338
C81 0.10714 0.13917 0.5878
C82 0.14448 0.13328 0.7828
C83 0.10356 0.18578 0.39869
C84 0.17835 0.16929 0.76546
C85 0.13648 0.22342 0.3925
C86 0.17537 0.2142 0.56054
C87 0.24835 0.23379 0.53252
C88 0.28463 0.26941 0.48022
C89 0.27868 0.3196 0.33375
C90 0.32623 0.25428 0.57931
C91 0.31324 0.35407 0.299
C92 0.36066 0.28952 0.55061
C93 0.35467 0.34041 0.41475
C94 0.13167 0.97288 0.4925
C95 0.07343 0.90274 0.42206
C96 0.08663 0.95641 0.47309
H1 0.34716 0.44745 0.4842
H2 0.5005 0.38626 0.39208
H3 0.44112 0.32183 0.34359
H4 0.03628 0.79736 0.30447
H5 0.14623 0.89975 0.04526
H6 0.07537 0.80897 0.75864
H7 0.20656 0.83592 0.07706
H8 0.13423 0.74145 0.76331
H9 0.25641 0.80813 0.40767
H10 0.24651 0.6699 0.75297
H11 0.33098 0.7846 0.30641
H12 0.30856 0.60774 0.82329
H13 0.39224 0.72149 0.35199
H14 0.15979 0.05284 0.51004
H15 0.66398 0.54821 0.34395
H16 0.50962 0.58688 0.07117
H17 0.56813 0.644 0.85458
H18 0.9509 0.20085 0.7444
H19 0.83388 0.11209 0.4466
H20 0.92229 0.16961 0.19008
H21 0.7813 0.17898 0.62494
H22 0.87288 0.24445 0.31865
H23 0.74274 0.20355 0.08558
H24 0.76289 0.35359 0.13629
H25 0.6697 0.22639 0.07383
H26 0.70422 0.42034 0.05912
H27 0.61148 0.29213 0.9807
H28 0.82887 0.95518 0.32487
H29 0.66398 0.45173 0.65576
H30 0.50962 0.41309 0.92858
H31 0.56812 0.35596 0.14516
H32 0.95093 0.7991 0.25572
H33 0.83389 0.88782 0.55357
H34 0.92231 0.83033 0.81008
H35 0.78132 0.82093 0.37513
H36 0.87292 0.75548 0.68144
H37 0.74277 0.79638 -0.08559
H38 0.76291 0.64634 0.86352
H39 0.66973 0.77356 -0.07395
H40 0.70422 0.5796 0.94058
H41 0.6115 0.70782 0.01907
H42 0.82887 0.04473 0.67543
H43 0.34717 0.55253 0.51558
H44 0.5005 0.61371 0.60765
H45 0.44113 0.67814 0.65616
H46 0.03624 0.20261 0.69568
H47 0.14622 0.10025 0.95497
H48 0.07535 0.19102 0.24159
H49 0.20654 0.16408 0.92311
H50 0.13421 0.25854 0.23687
H51 0.25639 0.19186 0.5924
H52 0.24649 0.33009 0.24701
H53 0.33097 0.21539 0.69352
H54 0.30854 0.39223 0.17657
H55 0.39223 0.27848 0.64782
H56 0.15979 0.94716 0.49023
H57 0.99464 0.95866 0.40897
H58 0.99464 0.0413 0.59123
N1 0.20907 0.74994 0.49197
N2 0.79437 0.25707 0.07211
N3 0.7944 0.74286 -0.07211
N4 0.20905 0.25005 0.50813
N5 0.48361 0.49998 0.49987
N6 0.528 0.49998 0.49988
N7 0.05987 0.99999 0.50011
N8 0.9287 0.99997 0.50009
N9 0.99426 0.9181 0.37288
N10 0.99425 0.08186 0.62729
