data_crystal
 
_cell_length_a    21.54995
_cell_length_b    21.57269
_cell_length_c    5.18083
_cell_angle_alpha 90.06946
_cell_angle_beta  89.91592
_cell_angle_gamma 120.04002
 
_symmetry_space_group_name_H-M  'P 1'
 
loop_
_atom_site_label
_atom_site_fract_x
_atom_site_fract_y
_atom_site_fract_z
O1 0.766141481 11.23715081 4.131437339
O2 0.65935519 13.72414994 4.132830959
O3 -1.440686364 12.38881568 4.133121232
O4 1.46693403 12.38924047 1.095516247
O5 -0.804677146 11.20194279 1.09547479
O6 -0.697343068 13.76295051 1.097137839
O7 9.96973915 7.471001659 1.098391571
O8 10.08175083 4.909676145 1.096733772
O9 12.24292895 6.286412873 1.096101656
O10 9.335048329 6.280142663 4.134540791
O11 11.53976628 7.435133148 4.133872545
O12 11.43758269 4.948096522 4.131846809
O13 9.31846517 14.37743022 1.979722181
O14 7.028873446 14.55736535 1.466882828
C1 2.02723541 10.84160556 4.5876194
C2 0.367326807 15.01344154 4.588147759
C3 -2.412398042 11.49282019 4.588686617
C4 2.429059558 11.54380334 0.559181836
C5 -2.01787498 10.79088471 0.559896788
C6 -0.449901016 15.0194738 0.560648024
C7 8.758250891 7.884538073 0.560694653
C8 10.33532264 3.65400643 0.560741282
C9 13.20439453 7.132516362 0.559839814
C10 8.364468569 7.178344349 4.588878382
C11 12.80150585 7.830025359 4.588966391
C12 11.15202109 3.657536225 4.587997681
C13 2.837995446 9.89422229 3.983519734
C14 0.778962398 16.18996174 3.983488545
C15 -3.638325347 11.26414216 3.985167189
C16 3.681748432 11.34147557 1.106541065
C17 -2.818790942 9.80714079 1.107183449
C18 -0.902053406 16.20435868 1.108675499
C19 7.957088627 8.868798294 1.108235148
C20 9.888513094 2.467283521 1.109240219
C21 14.45665005 7.335752887 1.107162759
C22 7.139231069 7.409033872 3.98372694
C23 13.611242 8.778355445 3.985374394
C24 11.56866997 2.482580024 3.983530234
C25 4.124707261 9.62379979 4.540914152
C26 0.368063059 17.43869059 4.541235305
C27 -4.515001103 10.28427651 4.542225013
C28 4.555538118 10.37912179 0.523055961
C29 -4.089299145 9.530755758 0.523921145
C30 -0.508721948 17.44339097 0.524921043
C31 6.687427066 9.147209583 0.523662099
C32 10.28635456 1.229754956 0.525273346
C33 15.32990508 8.298974082 0.523988502
C34 6.262525387 8.389049558 4.540764075
C35 14.89810843 9.049096479 4.542323521
C36 11.16301051 1.23213311 4.541406381
C37 4.992315564 8.658009312 3.993663852
C38 11.56711686 -0.00128836 3.993705232
C39 -5.785401584 10.01578998 3.995570391
C40 5.828477322 10.12122273 1.060659699
C41 16.60247121 8.556653556 1.061265798
C42 -0.923406639 18.67328774 1.06325525
C43 8.173788569 14.46670671 1.722991696
Li1 1.716777917 12.63402863 2.96193913
Li2 -1.023958076 13.85066314 2.964731619
Li3 -0.708541216 10.8717474 2.961830123
Li4 9.755322609 4.820985845 2.964198011
Li5 12.48980999 6.044569774 2.962508868
Li6 10.06412893 7.80055609 2.965099401
Si1 -0.01172851 12.45220125 0.099409643
Si2 10.76378576 6.22305667 0.100404359
H1 4.66893899 8.098134153 3.113783759
H2 12.21222492 -0.000186019 3.112711293
H3 -6.109628001 10.57654205 3.116576248
H4 6.148160399 10.6763524 1.945078088
H5 16.92485471 7.999018383 1.942953999
H6 -1.565849991 18.67205369 1.946212624
H7 2.503073302 9.35042832 3.09955204
H8 1.417516856 16.17291347 3.099464032
H9 -3.94296046 11.82704367 3.102126824
H10 4.023354292 11.90342741 1.979069375
H11 -2.504444393 9.233467502 1.98247329
H12 -1.555290475 16.21808651 1.984654353
H13 8.270589578 9.439300508 1.985820077
H14 9.235724996 2.450982423 1.985519613
H15 14.79745097 6.77655259 1.981944777
H16 6.835031651 6.846695133 3.100277414
H17 13.27517842 9.323534911 3.102603613
H18 12.20594822 2.50202321 3.098593522
O1 0.771130131 11.23555725 4.126016035
O2 0.664397269 13.72189051 4.126000578
O3 -1.435379212 12.3863559 4.126078171
O4 1.476395373 12.38253399 1.086157805
O5 -0.794700747 11.20187937 1.086256343
O6 -0.681734095 13.75907034 1.086183773
O7 9.984972412 7.469766371 1.086199307
O8 10.09802097 4.91248192 1.086256343
O9 12.25606185 6.288962622 1.086142271
O10 9.344254155 6.285484416 4.126109394
O11 11.55080246 7.436152294 4.125979865
O12 11.44407801 4.949856873 4.12602129
C1 2.028348945 10.83344267 4.588318143
C2 0.384013517 15.01169246 4.588271463
C3 -2.41217261 11.49846499 4.588281664
C4 2.434954328 11.52876504 0.557385823
C5 -2.013289351 10.79835495 0.557442859
C6 -0.421707074 15.01607623 0.557385823
C7 8.766375811 7.873167211 0.557406574
C8 10.35791189 3.655482938 0.557427325
C9 13.21465744 7.142757123 0.557396179
C10 8.36749823 7.173345914 4.588354312
C11 12.8080017 7.838368232 4.588245495
C12 11.16361114 3.660099526 4.58829743
C13 2.837349809 9.881908293 3.988149008
C14 0.80352248 16.18809173 3.988060904
C15 -3.640571811 11.27347557 3.988149008
C16 3.681191362 11.31551474 1.115170976
C17 -2.820982003 9.825754521 1.115150264
C18 -0.86009563 16.20195542 1.115233267
C19 7.958645618 8.845874536 1.115165798
C20 9.919418477 2.469616883 1.115238445
C21 14.46077746 7.356057557 1.115145086
C22 7.138961198 7.398207615 3.988195688
C23 13.6169543 8.789812733 3.988169721
C24 11.58304807 2.483666299 3.988055649
C25 4.119569412 9.604055024 4.552635236
C26 0.403002629 17.43739793 4.55257279
C27 -4.522233685 10.30195819 4.552557333
C28 4.553566176 10.34906244 0.535747842
C29 -4.094029377 9.553339154 0.535784128
C30 -0.459407148 17.4406425 0.535784128
C31 6.685501801 9.118162833 0.535747842
C32 10.32010155 1.230933499 0.535768593
C33 15.33314714 8.322421183 0.535794522
C34 6.257314623 8.36977663 4.552661204
C36 11.1824887 1.234373336 4.552562589
C37 4.987718793 8.639283574 4.004807853
C38 11.58386059 0.000134737 4.004647101
C39 -5.791809677 10.03241949 4.004704292
C40 5.821901332 10.08412944 1.080011827
C41 -4.957624963 8.587385174 1.080058507
C42 9.915358222 0.000049975 1.08009483
C43 2.71428874 2.524918679 4.869860904
Li1 1.717812336 12.63319704 2.952429667
Li2 -1.019427928 13.8427917 2.952440178
Li3 -0.698335125 10.86749029 2.952502315
Li4 9.759927983 4.828924938 2.952491804
Li5 12.49738069 6.038389388 2.952372786
Li6 10.0812972 7.804226345 2.952471092
Si1 -0.000016211 12.44781712 0.087003207
Si2 10.77963769 6.223713947 0.086998019
H1 4.66755608 8.084696144 3.120518363
H2 12.22418005 0.000127779 3.120357611
H3 15.44713862 10.58691783 3.120435205
H4 6.139272412 10.63384358 1.968663336
H5 -4.640310966 8.037816035 1.968725627
H6 9.280816965 0.000057062 1.968839699
H7 2.505059631 9.343694945 3.099518289
H8 1.435746002 16.16946929 3.09943544
H9 -3.940703086 11.83032647 3.099487066
H10 4.018235329 11.87002746 1.994357211
H11 -2.509273219 9.256616857 1.994424603
H12 -1.50879145 16.21658225 1.994497251
H13 8.270346699 9.415006962 1.994362312
H14 9.270755984 2.455059939 1.994486895
H15 14.79788318 6.801595805 1.994429704
H16 6.83887946 6.841173893 3.09971521
H17 13.28471118 9.328123143 3.099497577
H18 12.21529435 2.502274789 3.099430184
H19 1.89877544 1.843080878 5.138499923
H20 2.531824002 2.937697702 3.870348458
H21 2.763845089 3.341666949 0.413243174
H22 3.663244466 1.975696785 4.87116794
