data_crystal
 
_cell_length_a    65.82700
_cell_length_b    65.82700
_cell_length_c    6.98790
_cell_angle_alpha 90.00000
_cell_angle_beta  90.00000
_cell_angle_gamma 120.00000
 
_symmetry_space_group_name_H-M  'R -3 c'
 
loop_
_atom_site_label
_atom_site_fract_x
_atom_site_fract_y
_atom_site_fract_z
C 0.01356 -1.43741 -0.01894
C 0.0135 1.4374 0.02
C 1.23808 -0.73039 0.02
C -1.25158 -0.70701 0.02
C -1.25161 0.70696 -0.01894
C 1.23805 0.73044 -0.01894
N 2.39837 -1.39263 0.1348
C 2.38984 -2.7245 0.12998
C 1.16472 -3.43184 -0.12915
N 0.00699 -2.77337 -0.13381
N -2.40531 1.38063 -0.13381
C -3.55442 0.70724 -0.12915
C -3.55441 -0.70741 0.12998
N -2.40524 -1.38073 0.1348
N 2.39832 1.39274 -0.13381
C 2.3897 2.7246 -0.12915
C 1.16457 3.43191 0.12998
N 0.00687 2.77336 0.1348
C 1.07129 -4.87812 -0.45602
C 0.76357 -7.60904 -1.16103
C -0.05262 -5.60994 -0.03952
C 2.02817 -5.52627 -1.25374
C 1.87257 -6.86254 -1.60158
C -0.20169 -6.94992 -0.37772
H -0.81241 -5.10937 0.55139
H 2.88616 -4.97687 -1.62702
H 2.60545 -7.3263 -2.25524
H -1.07422 -7.49188 -0.03393
C 3.68911 -3.36674 0.45671
C 6.208 -4.46584 1.16147
C 4.88484 -2.75878 0.04098
C 3.77198 -4.52011 1.25355
C 5.00702 -5.05361 1.60121
C 6.11984 -3.2997 0.37911
H 4.83121 -1.85006 -0.54925
H 2.86719 -4.9889 1.62626
H 5.04223 -5.92074 2.25412
H 7.02548 -2.8146 0.03598
C 3.68893 3.36682 -0.45602
C 6.20784 4.46579 -1.16103
C 3.7718 4.51958 -1.25374
C 4.88466 2.7594 -0.03952
C 6.11966 3.30029 -0.37772
C 5.00685 5.05296 -1.60158
H 2.86702 4.98792 -1.62702
H 4.83105 1.85111 0.55139
H 7.02527 2.81564 -0.03393
H 5.04203 5.91953 -2.25524
C 1.07113 4.87823 0.45671
C 0.76353 7.60921 1.16147
C -0.05325 5.60978 0.04098
C 2.02855 5.52668 1.25355
C 1.87304 6.86301 1.60121
C -0.2023 6.94979 0.37911
H -0.8134 5.10898 -0.54925
H 2.88692 4.97751 1.62626
H 2.60639 7.32707 2.25412
H -1.07522 7.49154 0.03598
C -4.76022 1.5113 -0.45602
C -6.97141 3.14325 -1.16103
C -5.79997 1.00669 -1.25374
C -4.83204 2.85054 -0.03952
C -5.91797 3.64963 -0.37772
C -6.87942 1.80957 -1.60158
H -5.75318 -0.01105 -1.62702
H -4.01863 3.25825 0.55139
﻿H -5.95105 4.67625 -0.03393
H -7.64748 1.40676 -2.25524
C -4.76023 -1.51149 0.45671
C -6.97153 -3.14337 1.16147
C -4.83159 -2.851 0.04098
C -5.80052 -1.00657 1.25355
C -6.88006 -1.80941 1.60121
C -5.91754 -3.65009 0.37911
H -4.01781 -3.25892 -0.54925
H -5.75411 0.01139 1.62626
H -7.64863 -1.40633 2.25412
H -5.95026 -4.67694 0.03598
C 7.50525 -5.08891 1.50418
C 9.95384 -4.98696 2.1122
C 8.87093 -7.10206 1.93195
C 10.04314 -6.42071 2.19659
C 7.64849 -6.46028 1.59697
C 8.69831 -4.32801 1.77078
H 6.79439 -7.09162 1.37169
H 8.8825 -8.18779 1.94424
C 0.6545 -9.04398 -1.50393
C 1.71526 -11.23275 -1.93404
C -0.65826 -11.11395 -2.11029
C 0.53893 -11.90761 -2.19695
C -0.60117 -9.69719 -1.76869
C 1.77067 -9.8533 -1.59868
H 2.64995 -11.78527 -1.94812
H 2.74466 -9.42902 -1.37477
C -8.15975 -3.95529 1.50418
C -9.29575 -6.1268 2.1122
C -10.58603 -4.13142 1.93195
C -10.58206 -5.48726 2.19659
C -9.41901 -3.39365 1.59697
C -8.09732 -5.36895 1.77078
H -11.53209 -3.59857 1.94424
H -9.53872 -2.33831 1.37169
C -8.15957 3.95518 -1.50393
C -10.58548 4.13091 -1.93404
C -9.29583 6.12704 -2.11029
C -10.58176 5.48708 -2.19695
C -8.09743 5.36922 -1.76869
C -9.41855 3.3932 -1.59868
H -9.5381 2.33756 -1.37477
H -11.53132 3.59771 -1.94812
C 0.6545 9.04419 1.50418
C -0.65809 11.11375 2.1122
C 1.7151 11.23348 1.93195
C 0.53893 11.90797 2.19659
C 1.77052 9.85393 1.59697
C -0.60099 9.69696 1.77078
H 2.64959 11.78637 1.94424
H 2.74432 9.42993 1.37169
C 7.50507 5.0888 -1.50393
C 8.87022 7.10184 -1.93404
C 9.95409 4.9869 -2.11029
C 10.04283 6.42053 -2.19695
C 8.6986 4.32797 -1.76869
C 7.64787 6.4601 -1.59868
H 6.79344 7.09146 -1.37477
H 8.88137 8.18756 -1.94812
N -1.80271 -9.10819 -1.76315
S -2.90078 -10.26307 -2.15458
N -1.90053 -11.54934 -2.35085
N -6.98612 -6.11452 1.76741
S -7.43701 -7.64262 2.16027
N -9.05133 -7.41986 2.35489
N -6.98656 6.11529 -1.76315
S -7.43769 7.64369 -2.15458
N -9.05175 7.42057 -2.35085
N 8.78928 2.9929 -1.76315
S 10.33847 2.61938 -2.15458
N 10.95228 4.12876 -2.35085
N 8.78839 -2.99289 1.76741
N 10.95145 -4.12875 2.35489
N -1.80227 9.10741 1.76741
N -1.90013 11.54861 2.35489
S -2.9002 10.26195 2.16027
S 10.33721 -2.61933 2.16027
C -11.8232 6.21336 -2.54705
C -14.2406 7.52329 -3.17395
C -12.0668 7.52679 -2.10262
C -12.81268 5.57821 -3.32144
C -14.00597 6.21988 -3.63213
C -13.26006 8.16877 -2.40922
H -11.31736 8.04067 -1.51335
H -12.63028 4.57989 -3.70776
H -14.75336 5.71871 -4.2371
H -13.45312 9.17774 -2.06003
C 0.53064 13.34641 2.54594
C 0.60459 16.09536 3.17099
C -0.4866 14.21319 2.10335
C 1.57691 13.88692 3.31752
C 1.61772 15.2414 3.62726
C -0.44614 15.56778 2.40908
H -1.30744 13.82023 1.51618
H 2.35166 13.23056 3.7024
H 2.42665 15.63897 4.23001
H -1.22469 16.23873 2.06135
C 11.29252 7.13251 -2.54705
C 13.63566 8.57108 -3.17395
C 12.55179 6.68676 -2.10262
C 11.23721 8.307 -3.32144
C 12.38956 9.01959 -3.63213
C 13.7044 7.39917 -2.40922
H 12.6221 5.78079 -1.51335
H 10.28144 8.6482 -3.70776
H 12.32923 9.91742 -4.2371
H 14.67472 7.06187 -2.06003
﻿C 11.29301 -7.13275 2.54594
C 13.63669 -8.57127 3.17099
C 12.55229 -6.68519 2.10335
C 11.23797 -8.3091 3.31752
C 12.39058 -9.02169 3.62726
C 13.70516 -7.39752 2.40908
H 12.62239 -5.77784 1.51618
H 10.28217 -8.65188 3.7024
H 12.33042 -9.92103 4.23001
H 14.6755 -7.05875 2.06135
C 0.53067 -13.34587 -2.54705
C 0.60495 -16.09437 -3.17395
C -0.48499 -14.21355 -2.10262
C 1.57546 -13.88521 -3.32144
C 1.61641 -15.23947 -3.63213
C -0.44433 -15.56794 -2.40922
H -1.30474 -13.82146 -1.51335
H 2.34884 -13.22808 -3.70776
H 2.42413 -15.63614 -4.2371
H -1.2216 -16.23961 -2.06003
C -11.82365 -6.21366 2.54594
C -14.24129 -7.52409 3.17099
C -12.06569 -7.52801 2.10335
C -12.81488 -5.57782 3.31752
C -14.0083 -6.21971 3.62726
C -13.25902 -8.17026 2.40908
H -11.31495 -8.04239 1.51618
H -12.63383 -4.57868 3.7024
H -14.75707 -5.71795 4.23001
H -13.45081 -9.17998 2.06135
C 14.90033 9.28975 -3.47262
C -15.49604 -8.26027 3.46882
C 14.90163 -9.28983 3.46882
C 0.59499 -17.54894 -3.47262
O 16.00383 8.94415 -3.09922
O 16.00516 -8.94259 3.09707
O -0.25605 -18.3318 -3.09922
O -15.74709 -9.38958 3.09707
C -15.49532 8.25919 -3.47262
C 0.59441 17.5501 3.46882
O -15.74778 9.38765 -3.09922
O -0.25807 18.33217 3.09707
O -16.37171 -7.53862 4.2172
H -17.14464 -8.11873 4.3463
O -16.36911 7.53844 -4.22406
H -17.14217 8.1183 -4.35347
O 1.65722 17.94763 4.2172
H 1.54129 18.90706 4.3463
O 14.71304 10.40685 -4.22406
H 15.60174 10.78641 -4.35347
O 14.71449 -10.40901 4.2172
H 15.60335 -10.78832 4.3463
O 1.65608 -17.94529 -4.22406
H 1.54043 -18.90471 -4.35347
