data_crystal
 
_cell_length_a    59.52940
_cell_length_b    59.52940
_cell_length_c    6.96369
_cell_angle_alpha 90.00000
_cell_angle_beta  90.00000
_cell_angle_gamma 120.00000
 
_symmetry_space_group_name_H-M  'R-3c'
 
loop_
_atom_site_label
_atom_site_fract_x
_atom_site_fract_y
_atom_site_fract_z
O 14.66778 7.09312 -2.89693
H 15.48736 7.54626 -3.18820
O 13.69427 8.83825 -4.00687
N 2.39001 1.42220 -0.14764
C 1.23201 0.73734 -0.03159
C 2.38182 2.76841 -0.14459
C 3.67506 3.40561 -0.48792
C 3.75031 4.58788 -1.25138
H 2.84203 5.08123 -1.57642
C 4.98205 5.12483 -1.61352
H 5.02626 6.02912 -2.21004
C 6.18636 4.49868 -1.21846
C 6.10873 3.30518 -0.46419
H 7.02491 2.81069 -0.16101
C 4.87478 2.76537 -0.11689
H 4.81662 1.83684 0.43839
C 7.44696 5.05385 -1.57741
C 8.52885 5.52993 -1.88426
C 9.78904 6.08615 -2.24251
C 10.99262 5.45801 -1.84462
H 10.94440 4.54503 -1.26203
C 12.22468 6.00200 -2.19463
H 13.14480 5.51993 -1.88931
C 12.28430 7.18628 -2.95033
C 11.09320 7.81792 -3.35061
H 11.15727 8.73002 -3.93286
C 9.86053 7.27767 -3.00300
H 8.94236 7.76430 -3.31159
C 13.56556 7.79885 -3.34405
O -1.35903 16.31727 2.96516
O 0.64904 16.18325 4.04904
H 0.44640 17.12184 4.24874
N -0.00699 2.78111 0.12562
C 0.00000 1.43579 0.00892
C 1.15242 3.46524 0.12336
C 1.03493 4.90184 0.46807
C 2.00896 5.57172 1.23539
H 2.89760 5.04461 1.56180
C 1.83677 6.90382 1.59940
H 2.58861 7.40476 2.19886
C 0.68254 7.61690 1.20223
C -0.29974 6.93930 0.44371
H -1.19327 7.47258 0.13866
C -0.12900 5.60374 0.09471
H -0.89455 5.07842 -0.46374
C 0.51084 8.98303 1.56333
C 0.36296 10.15523 1.87217
C 0.18993 11.52144 2.23177
C -0.96220 12.23390 1.82166
H -1.71453 11.72677 1.22843
C -1.12761 13.56807 2.17482
H -2.00674 14.12140 1.86497
C -0.15134 14.22580 2.94435
C 0.99716 13.52737 3.35704
H 1.74557 14.03868 3.94924
C 1.16650 12.19164 3.00548
H 2.05120 11.65135 3.32266
C -0.37364 15.64042 3.29258
O 13.69058 -8.65371 4.04904
H 14.60475 -8.94751 4.24874
O 14.81068 -6.98168 2.96516
N 2.41201 -1.38450 0.12562
C 1.24343 -0.71789 0.00892
C 2.42478 -2.73065 0.12336
C 3.72766 -3.34719 0.46807
C 3.82077 -4.52567 1.23539
H 2.91996 -5.03170 1.56180
C 5.06050 -5.04260 1.59940
H 5.11841 -5.94418 2.19886
C 6.25516 -4.39954 1.20223
C 6.15948 -3.21007 0.44371
H 7.06808 -2.70289 0.13866
C 4.91748 -2.69015 0.09471
H 4.84532 -1.76451 -0.46374
C 7.52411 -4.93392 1.56333
C 8.61321 -5.39195 1.87217
C 9.88289 -5.92521 2.23177
C 9.97503 -7.10604 3.00548
H 9.06476 -7.60207 3.32266
C 11.21647 -7.62725 3.35704
H 11.28507 -8.53105 3.94924
C 12.39557 -6.98184 2.94435
C 12.31410 -5.80750 2.17482
H 13.23286 -5.32281 1.86497
C 11.07596 -5.28366 1.82166
H 11.01294 -4.37856 1.22843
C 13.73181 -7.49663 3.29258
O -13.47671 9.15611 -2.89693
H -14.27894 9.63932 -3.18820
O -14.50128 7.44046 -4.00687
N -2.42667 1.35871 -0.14764
C -1.25456 0.69828 -0.03159
C -3.58842 0.67851 -0.14459
C -4.78687 1.47989 -0.48792
C -5.84838 0.95393 -1.25138
H -5.82149 -0.07935 -1.57642
C -6.92926 1.75217 -1.61352
H -7.73451 1.33831 -2.21004
C -6.98915 3.10820 -1.21846
C -5.91674 3.63773 -0.46419
H -5.94658 4.67841 -0.16101
C -4.83227 2.83900 -0.11689
H -3.99906 3.25290 0.43839
C -8.10024 3.92233 -1.57741
C -9.05348 4.62124 -1.88426
C -10.16528 5.43449 -2.24251
C -10.22308 6.79089 -1.84462
H -9.40831 7.20561 -1.26203
C -11.31022 7.58588 -2.19463
H -11.35280 8.62377 -1.88931
C -12.36565 7.04538 -2.95033
C -12.31712 5.69804 -3.35061
H -13.13905 5.29747 -3.93286
C -11.23291 4.90063 -3.00300
H -11.19526 3.86216 -3.31159
C -13.53678 7.84870 -3.34405
O -1.19107 -16.24922 -2.89693
H -1.20843 -17.18558 -3.18820
O 0.80702 -16.27871 -4.00687
N 0.03665 -2.78091 -0.14764
C 0.02255 -1.43562 -0.03159
C 1.20660 -3.44692 -0.14459
C 1.11181 -4.88550 -0.48792
C 2.09807 -5.54181 -1.25138
H 2.97946 -5.00188 -1.57642
C 1.94721 -6.87700 -1.61352
H 2.70824 -7.36743 -2.21004
C 0.80279 -7.60688 -1.21846
C -0.19199 -6.94291 -0.46419
H -1.07833 -7.48910 -0.16101
C -0.04251 -5.60437 -0.11689
H -0.81756 -5.08974 0.43839
C 0.65329 -8.97618 -1.57741
C 0.52463 -10.15117 -1.88426
C 0.37624 -11.52064 -2.24251
C -0.76954 -12.24889 -1.84462
H -1.53609 -11.75065 -1.26203
C -0.91445 -13.58788 -2.19463
H -1.79200 -14.14370 -1.88931
C 0.08135 -14.23166 -2.95033
C 1.22391 -13.51595 -3.35061
H 1.98178 -14.02749 -3.93286
C 1.37238 -12.17830 -3.00300
H 2.25291 -11.62646 -3.31159
C -0.02878 -15.64755 -3.34405
O -13.45165 -9.33559 2.96516
O -14.33962 -7.52954 4.04904
H -15.05115 -8.17433 4.24874
N -2.40501 -1.39661 0.12562
C -1.24343 -0.71789 0.00892
C -3.57720 -0.73460 0.12336
C -4.76258 -1.55465 0.46807
C -5.82973 -1.04605 1.23539
H -5.81756 -0.01291 1.56180
C -6.89727 -1.86122 1.59940
H -7.70702 -1.46058 2.19886
C -6.93770 -3.21735 1.20223
C -5.85974 -3.72924 0.44371
H -5.87481 -4.76969 0.13866
C -4.78848 -2.91359 0.09471
H -3.95077 -3.31391 -0.46374
C -8.03495 -4.04912 1.56333
C -8.97617 -4.76328 1.87217
C -10.07282 -5.59623 2.23177
C -10.11376 -6.95024 1.82166
H -9.29842 -7.34821 1.22843
C -11.18649 -7.76057 2.17482
H -11.22612 -8.79859 1.86497
C -12.24424 -7.24396 2.94435
C -12.21363 -5.90012 3.35704
H -13.03064 -5.50763 3.94924
C -11.14152 -5.08561 3.00548
H -11.11596 -4.04928 3.32266
C -13.35818 -8.14379 3.29258
