# generated using pymatgen
data_Zn4H12C24O13
_symmetry_space_group_name_H-M   'P 1'
_cell_length_a   18.42016625
_cell_length_b   18.42016459
_cell_length_c   18.42016990
_cell_angle_alpha   60.00003374
_cell_angle_beta   60.00005245
_cell_angle_gamma   60.00005455
_symmetry_Int_Tables_number   1
_chemical_formula_structural   Zn4H12C24O13
_chemical_formula_sum   'Zn8 H24 C48 O26'
_cell_volume   4419.42886587
_cell_formula_units_Z   2
loop_
 _symmetry_equiv_pos_site_id
 _symmetry_equiv_pos_as_xyz
  1  'x, y, z'
loop_
 _atom_site_type_symbol
 _atom_site_label
 _atom_site_symmetry_multiplicity
 _atom_site_fract_x
 _atom_site_fract_y
 _atom_site_fract_z
 _atom_site_occupancy
 _atom_site_hle17_bader_spin_density
 _atom_site_hle17_ddec_charge
 _atom_site_hle17_ddec_spin_density
 _atom_site_hle17_ddec_sum_bond_order
 _atom_site_hle17_magmom
 _atom_site_hse06_10hf_bader_spin_density
 _atom_site_hse06_10hf_ddec_charge
 _atom_site_hse06_10hf_ddec_spin_density
 _atom_site_hse06_10hf_ddec_sum_bond_order
 _atom_site_hse06_10hf_magmom
 _atom_site_hse06_bader_spin_density
 _atom_site_hse06_ddec_charge
 _atom_site_hse06_ddec_spin_density
 _atom_site_hse06_ddec_sum_bond_order
 _atom_site_hse06_magmom
 _atom_site_pbe_bader_spin_density
 _atom_site_pbe_cm5_charge
 _atom_site_pbe_ddec_charge
 _atom_site_pbe_ddec_spin_density
 _atom_site_pbe_ddec_sum_bond_order
 _atom_site_pbe_magmom
Zn  Zn0  1  0.70648470  0.70648353  0.88054944  1  0  1.163358  0  1.84401  0  0  0.997521  0  2.329332  0  0  1.046588  0  2.260405  0  0  0.671119  0.962834  0  2.377207  0
Zn  Zn1  1  0.70648401  0.88054960  0.70648376  1  0  1.163371  0  1.843987  0  0  0.997536  0  2.329302  0  0  1.046605  0  2.260374  0  0  0.671122  0.962845  0  2.37716  0
Zn  Zn2  1  0.88055015  0.70648343  0.70648380  1  0  1.163326  0  1.84407  0  0  0.997486  0  2.3294  0  0  1.046554  0  2.260471  0  0  0.67111  0.962798  0  2.377261  0
Zn  Zn3  1  0.70648435  0.70648213  0.70648242  1  0  1.163332  0  1.844049  0  0  0.997494  0  2.329379  0  0  1.04656  0  2.260452  0  0  0.671102  0.962795  0  2.377256  0
Zn  Zn4  1  0.29351778  0.29351563  0.11944948  1  0  1.163305  0  1.844076  0  0  0.997452  0  2.3294  0  0  1.046522  0  2.260473  0  0  0.67113  0.962792  0  2.377283  0
Zn  Zn5  1  0.29351707  0.11944926  0.29351582  1  0  1.163304  0  1.844084  0  0  0.997451  0  2.329409  0  0  1.046522  0  2.260481  0  0  0.67108  0.962737  0  2.377263  0
Zn  Zn6  1  0.29351868  0.29351649  0.29351650  1  0  1.163233  0  1.844159  0  0  0.997364  0  2.329506  0  0  1.046434  0  2.260578  0  0  0.671103  0.962732  0  2.377396  0
Zn  Zn7  1  0.11945341  0.29351465  0.29351512  1  0  1.163317  0  1.84404  0  0  0.997471  0  2.329369  0  0  1.046538  0  2.260443  0  0  0.671058  0.96276  0  2.377207  0
H  H8  1  0.54830800  0.83515545  0.06822822  1  0  0.107787  0  0.935232  0  0  0.117782  0  0.991075  0  0  0.121283  0  0.989211  0  0  0.109451  0.115273  0  0.992462  0
H  H9  1  0.54830839  0.06822826  0.83515510  1  0  0.10778  0  0.935266  0  0  0.117775  0  0.991112  0  0  0.121275  0  0.989248  0  0  0.109438  0.115255  0  0.992498  0
H  H10  1  0.06822939  0.54830713  0.54830681  1  0  0.107815  0  0.935199  0  0  0.117824  0  0.991033  0  0  0.121325  0  0.989169  0  0  0.109441  0.115299  0  0.992426  0
H  H11  1  0.83515644  0.54830691  0.54830704  1  0  0.107841  0  0.935161  0  0  0.117848  0  0.990993  0  0  0.121349  0  0.989129  0  0  0.109447  0.115326  0  0.992382  0
H  H12  1  0.54830859  0.54830849  0.83515513  1  0  0.1078  0  0.935203  0  0  0.117795  0  0.991047  0  0  0.121296  0  0.989182  0  0  0.109449  0.115272  0  0.99244  0
H  H13  1  0.54830809  0.54830818  0.06822820  1  0  0.107795  0  0.935236  0  0  0.117789  0  0.991085  0  0  0.12129  0  0.98922  0  0  0.10944  0.115255  0  0.992479  0
H  H14  1  0.06822862  0.83515590  0.54830750  1  0  0.107803  0  0.935192  0  0  0.117808  0  0.991026  0  0  0.121309  0  0.989162  0  0  0.109452  0.11529  0  0.992411  0
H  H15  1  0.83515564  0.06822934  0.54830767  1  0  0.107792  0  0.935207  0  0  0.117797  0  0.991043  0  0  0.121298  0  0.989179  0  0  0.109446  0.115278  0  0.99243  0
H  H16  1  0.54830811  0.06822805  0.54830825  1  0  0.107802  0  0.935236  0  0  0.117797  0  0.991084  0  0  0.121298  0  0.989219  0  0  0.109458  0.11528  0  0.992477  0
H  H17  1  0.54830790  0.83515525  0.54830830  1  0  0.107794  0  0.935227  0  0  0.117793  0  0.991065  0  0  0.121295  0  0.9892  0  0  0.109429  0.115269  0  0.992453  0
H  H18  1  0.06822887  0.54830762  0.83515632  1  0  0.107798  0  0.935225  0  0  0.117805  0  0.991057  0  0  0.121305  0  0.989193  0  0  0.109444  0.115278  0  0.992449  0
H  H19  1  0.83515649  0.54830708  0.06822895  1  0  0.107804  0  0.935214  0  0  0.11781  0  0.991045  0  0  0.121311  0  0.989182  0  0  0.109459  0.115291  0  0.992438  0
H  H20  1  0.45169277  0.16484417  0.93177070  1  0  0.107796  0  0.935227  0  0  0.117804  0  0.99106  0  0  0.121305  0  0.989196  0  0  0.109439  0.115281  0  0.992446  0
H  H21  1  0.45169207  0.93177105  0.16484382  1  0  0.107803  0  0.935215  0  0  0.11781  0  0.991048  0  0  0.121311  0  0.989184  0  0  0.109454  0.115289  0  0.992433  0
H  H22  1  0.16484478  0.45169208  0.45169122  1  0  0.107796  0  0.935244  0  0  0.117788  0  0.991092  0  0  0.121289  0  0.989227  0  0  0.109452  0.11527  0  0.992488  0
H  H23  1  0.93177214  0.45169109  0.45169211  1  0  0.107796  0  0.935235  0  0  0.117788  0  0.991082  0  0  0.121289  0  0.989218  0  0  0.10945  0.115268  0  0.992475  0
H  H24  1  0.93177186  0.45169196  0.16484459  1  0  0.107793  0  0.935224  0  0  0.11779  0  0.991065  0  0  0.12129  0  0.989202  0  0  0.109448  0.11527  0  0.99246  0
H  H25  1  0.16484500  0.45169218  0.93177130  1  0  0.10777  0  0.935249  0  0  0.117771  0  0.991088  0  0  0.121272  0  0.989223  0  0  0.109422  0.115245  0  0.992483  0
H  H26  1  0.45169220  0.16484371  0.45169261  1  0  0.107816  0  0.935196  0  0  0.117824  0  0.991026  0  0  0.121325  0  0.989162  0  0  0.109459  0.115312  0  0.992421  0
H  H27  1  0.45169230  0.93177122  0.45169266  1  0  0.1078  0  0.935217  0  0  0.117808  0  0.991051  0  0  0.121308  0  0.989187  0  0  0.109441  0.115279  0  0.99244  0
H  H28  1  0.16484413  0.93177146  0.45169191  1  0  0.107787  0  0.935223  0  0  0.117793  0  0.991056  0  0  0.121294  0  0.989193  0  0  0.109445  0.115275  0  0.992443  0
H  H29  1  0.93177170  0.16484436  0.45169209  1  0  0.107789  0  0.93522  0  0  0.117785  0  0.991063  0  0  0.121286  0  0.989199  0  0  0.109449  0.115265  0  0.992451  0
H  H30  1  0.45169258  0.45169262  0.16484378  1  0  0.107825  0  0.935164  0  0  0.117833  0  0.990994  0  0  0.121334  0  0.98913  0  0  0.109445  0.115309  0  0.992392  0
H  H31  1  0.45169307  0.45169293  0.93177072  1  0  0.107794  0  0.935191  0  0  0.117797  0  0.99103  0  0  0.121298  0  0.989166  0  0  0.109444  0.115278  0  0.992425  0
C  C32  1  0.61101057  0.88898931  0.88898891  1  0  0.676996  0  3.873455  0  0  0.629763  0  4.156781  0  0  0.6656  0  4.149465  0  0  0.229028  0.605384  0  4.160876  0
C  C33  1  0.88899152  0.61101053  0.61100980  1  0  0.67703  0  3.873348  0  0  0.62985  0  4.156588  0  0  0.665688  0  4.14927  0  0  0.229062  0.605464  0  4.160677  0
C  C34  1  0.61101136  0.61101126  0.88899022  1  0  0.676994  0  3.873469  0  0  0.629783  0  4.156761  0  0  0.66562  0  4.149446  0  0  0.229041  0.605396  0  4.160843  0
C  C35  1  0.88898952  0.88898953  0.61100982  1  0  0.677007  0  3.873468  0  0  0.629782  0  4.156782  0  0  0.665621  0  4.149465  0  0  0.229029  0.605405  0  4.160881  0
C  C36  1  0.61101067  0.88899056  0.61101107  1  0  0.676918  0  3.873572  0  0  0.629697  0  4.156886  0  0  0.665534  0  4.149572  0  0  0.229008  0.605313  0  4.160976  0
C  C37  1  0.88898999  0.61101001  0.88898964  1  0  0.676968  0  3.87353  0  0  0.629769  0  4.156801  0  0  0.665605  0  4.149488  0  0  0.229027  0.605388  0  4.160895  0
C  C38  1  0.38899042  0.11101054  0.11100934  1  0  0.676961  0  3.873512  0  0  0.629788  0  4.15674  0  0  0.665625  0  4.149426  0  0  0.229042  0.605411  0  4.160832  0
C  C39  1  0.11101055  0.38898823  0.38898845  1  0  0.67693  0  3.873464  0  0  0.629741  0  4.156729  0  0  0.665577  0  4.149418  0  0  0.229052  0.605373  0  4.16082  0
C  C40  1  0.11101227  0.38898893  0.11100995  1  0  0.676936  0  3.873512  0  0  0.629715  0  4.156824  0  0  0.665551  0  4.149512  0  0  0.229047  0.605341  0  4.160916  0
C  C41  1  0.38898997  0.11100894  0.38898918  1  0  0.676935  0  3.873554  0  0  0.629741  0  4.156816  0  0  0.665578  0  4.1495  0  0  0.22901  0.605367  0  4.160905  0
C  C42  1  0.11101210  0.11100986  0.38898910  1  0  0.676938  0  3.873516  0  0  0.629763  0  4.156766  0  0  0.665602  0  4.149451  0  0  0.229064  0.605379  0  4.160861  0
C  C43  1  0.38899035  0.38898930  0.11100870  1  0  0.676995  0  3.873485  0  0  0.629803  0  4.156743  0  0  0.66564  0  4.149427  0  0  0.229051  0.605448  0  4.160839  0
C  C44  1  0.55363939  0.94635966  0.94635986  1  0  -0.056585  0  3.747482  0  0  -0.035695  0  3.980547  0  0  -0.044021  0  4.005244  0  0  -0.013858  -0.03012  0  3.963782  0
C  C45  1  0.94636005  0.55363969  0.55363885  1  0  -0.056647  0  3.747343  0  0  -0.035771  0  3.980412  0  0  -0.044096  0  4.005108  0  0  -0.01391  -0.030193  0  3.963628  0
C  C46  1  0.55364068  0.55364056  0.94635917  1  0  -0.056649  0  3.747496  0  0  -0.035765  0  3.980565  0  0  -0.04409  0  4.00526  0  0  -0.013909  -0.03019  0  3.963776  0
C  C47  1  0.94636033  0.94636037  0.55363954  1  0  -0.056618  0  3.747495  0  0  -0.035726  0  3.98056  0  0  -0.044054  0  4.005257  0  0  -0.013843  -0.030153  0  3.963797  0
C  C48  1  0.55363992  0.94635920  0.55364075  1  0  -0.056611  0  3.747552  0  0  -0.035729  0  3.980622  0  0  -0.044055  0  4.005319  0  0  -0.01388  -0.030153  0  3.963847  0
C  C49  1  0.94636066  0.55363912  0.94636062  1  0  -0.056617  0  3.747365  0  0  -0.035734  0  3.980428  0  0  -0.044062  0  4.005126  0  0  -0.013869  -0.030164  0  3.963658  0
C  C50  1  0.44636075  0.05363934  0.05363905  1  0  -0.056608  0  3.747372  0  0  -0.035734  0  3.980429  0  0  -0.044062  0  4.005128  0  0  -0.013881  -0.030166  0  3.963667  0
C  C51  1  0.05364085  0.44635898  0.44635941  1  0  -0.056633  0  3.747562  0  0  -0.035757  0  3.980625  0  0  -0.044082  0  4.005322  0  0  -0.013902  -0.030195  0  3.96387  0
C  C52  1  0.05364061  0.44635992  0.05364030  1  0  -0.056657  0  3.747469  0  0  -0.035771  0  3.980543  0  0  -0.044098  0  4.00524  0  0  -0.013904  -0.030209  0  3.963785  0
C  C53  1  0.44636018  0.05363975  0.44636016  1  0  -0.056557  0  3.747428  0  0  -0.035674  0  3.980483  0  0  -0.043999  0  4.00518  0  0  -0.013862  -0.030107  0  3.963721  0
C  C54  1  0.05363999  0.05363989  0.44636005  1  0  -0.056577  0  3.747525  0  0  -0.035702  0  3.980576  0  0  -0.044029  0  4.005273  0  0  -0.013845  -0.03013  0  3.963814  0
C  C55  1  0.44636080  0.44636086  0.05363975  1  0  -0.056607  0  3.747541  0  0  -0.03573  0  3.980604  0  0  -0.044055  0  4.0053  0  0  -0.013871  -0.030175  0  3.963855  0
C  C56  1  0.52668789  0.90739655  0.03922625  1  0  -0.068108  0  3.734489  0  0  -0.092267  0  3.983815  0  0  -0.093566  0  4.005426  0  0  -0.078901  -0.0913  0  3.969083  0
C  C57  1  0.52668871  0.03922645  0.90739573  1  0  -0.068061  0  3.734456  0  0  -0.092215  0  3.983774  0  0  -0.093513  0  4.005386  0  0  -0.078871  -0.091247  0  3.969038  0
C  C58  1  0.03922769  0.52668755  0.52668714  1  0  -0.068132  0  3.734219  0  0  -0.092305  0  3.983559  0  0  -0.093606  0  4.005172  0  0  -0.0789  -0.091341  0  3.968829  0
C  C59  1  0.90739845  0.52668775  0.52668739  1  0  -0.068198  0  3.734364  0  0  -0.092372  0  3.983703  0  0  -0.093672  0  4.005316  0  0  -0.078939  -0.091406  0  3.968966  0
C  C60  1  0.52668935  0.52668923  0.90739709  1  0  -0.068085  0  3.734466  0  0  -0.092242  0  3.983793  0  0  -0.09354  0  4.005405  0  0  -0.078893  -0.091283  0  3.96906  0
C  C61  1  0.52668876  0.52668884  0.03922622  1  0  -0.068064  0  3.734351  0  0  -0.092218  0  3.983672  0  0  -0.093516  0  4.005284  0  0  -0.078891  -0.091259  0  3.968938  0
C  C62  1  0.03922623  0.90739791  0.52668783  1  0  -0.068088  0  3.73446  0  0  -0.092256  0  3.983784  0  0  -0.093554  0  4.005397  0  0  -0.078895  -0.091283  0  3.969049  0
C  C63  1  0.90739763  0.03922695  0.52668802  1  0  -0.068056  0  3.734438  0  0  -0.092225  0  3.983759  0  0  -0.093523  0  4.005372  0  0  -0.078875  -0.091255  0  3.969027  0
C  C64  1  0.52668853  0.03922635  0.52668858  1  0  -0.068066  0  3.73442  0  0  -0.092219  0  3.983741  0  0  -0.093517  0  4.005352  0  0  -0.078881  -0.091254  0  3.969017  0
C  C65  1  0.52668875  0.90739620  0.52668930  1  0  -0.068042  0  3.734413  0  0  -0.092197  0  3.983731  0  0  -0.093495  0  4.005342  0  0  -0.078858  -0.091233  0  3.968993  0
C  C66  1  0.03922707  0.52668793  0.90739695  1  0  -0.068094  0  3.734411  0  0  -0.092267  0  3.983739  0  0  -0.093565  0  4.005352  0  0  -0.078894  -0.091302  0  3.969007  0
C  C67  1  0.90739734  0.52668783  0.03922700  1  0  -0.068046  0  3.734368  0  0  -0.092215  0  3.983691  0  0  -0.093513  0  4.005303  0  0  -0.078878  -0.091249  0  3.968962  0
C  C68  1  0.47331170  0.09260299  0.96077267  1  0  -0.068124  0  3.7344  0  0  -0.0923  0  3.983728  0  0  -0.093598  0  4.00534  0  0  -0.078909  -0.091329  0  3.968991  0
C  C69  1  0.47331196  0.96077309  0.09260252  1  0  -0.068059  0  3.734389  0  0  -0.092229  0  3.983713  0  0  -0.093527  0  4.005325  0  0  -0.078877  -0.091255  0  3.968976  0
C  C70  1  0.09260384  0.47331123  0.47331020  1  0  -0.068011  0  3.734384  0  0  -0.092163  0  3.983708  0  0  -0.093461  0  4.005321  0  0  -0.078842  -0.091201  0  3.968991  0
C  C71  1  0.96077461  0.47331035  0.47331111  1  0  -0.06802  0  3.734316  0  0  -0.092173  0  3.983642  0  0  -0.09347  0  4.005253  0  0  -0.078847  -0.091207  0  3.968917  0
C  C72  1  0.96077442  0.47331134  0.09260330  1  0  -0.068111  0  3.734454  0  0  -0.092274  0  3.983785  0  0  -0.093571  0  4.005396  0  0  -0.078915  -0.091309  0  3.969063  0
C  C73  1  0.09260416  0.47331143  0.96077325  1  0  -0.068005  0  3.734379  0  0  -0.092164  0  3.983702  0  0  -0.093462  0  4.005314  0  0  -0.078851  -0.0912  0  3.968976  0
C  C74  1  0.47331199  0.09260231  0.47331228  1  0  -0.068176  0  3.73448  0  0  -0.092352  0  3.983808  0  0  -0.093651  0  4.00542  0  0  -0.078938  -0.091387  0  3.96909  0
C  C75  1  0.47331189  0.96077292  0.47331234  1  0  -0.068118  0  3.73436  0  0  -0.092295  0  3.983691  0  0  -0.093593  0  4.005302  0  0  -0.0789  -0.091326  0  3.968955  0
C  C76  1  0.09260331  0.96077393  0.47331156  1  0  -0.068089  0  3.734483  0  0  -0.092257  0  3.983808  0  0  -0.093555  0  4.00542  0  0  -0.078899  -0.091287  0  3.969075  0
C  C77  1  0.96077408  0.09260342  0.47331109  1  0  -0.068094  0  3.734505  0  0  -0.092254  0  3.983834  0  0  -0.093552  0  4.005446  0  0  -0.078907  -0.091287  0  3.969102  0
C  C78  1  0.47331213  0.47331219  0.09260183  1  0  -0.068157  0  3.734471  0  0  -0.09233  0  3.983799  0  0  -0.09363  0  4.005412  0  0  -0.078926  -0.091365  0  3.96908  0
C  C79  1  0.47331272  0.47331258  0.96077270  1  0  -0.068054  0  3.734406  0  0  -0.092221  0  3.983729  0  0  -0.093521  0  4.005343  0  0  -0.078884  -0.091252  0  3.969006  0
O  O80  1  0.75000062  0.74999949  0.74999969  1  0  -1.196467  0  2.058638  0  0  -1.058041  0  2.496761  0  0  -1.100652  0  2.438789  0  0  -0.571842  -1.027964  0  2.535887  0
O  O81  1  0.25000271  0.24999944  0.24999923  1  0  -1.196412  0  2.058742  0  0  -1.057945  0  2.496804  0  0  -1.100562  0  2.438841  0  0  -0.571809  -1.027872  0  2.535938  0
O  O82  1  0.63316702  0.80498066  0.92868436  1  0  -0.637978  0  2.06202  0  0  -0.566901  0  2.324616  0  0  -0.595664  0  2.305906  0  0  -0.31418  -0.546882  0  2.336934  0
O  O83  1  0.63316708  0.92868422  0.80498101  1  0  -0.637981  0  2.062031  0  0  -0.5669  0  2.324623  0  0  -0.595663  0  2.305912  0  0  -0.314181  -0.546881  0  2.336935  0
O  O84  1  0.92868408  0.63316688  0.63316671  1  0  -0.637941  0  2.0621  0  0  -0.566883  0  2.324671  0  0  -0.595645  0  2.30596  0  0  -0.314169  -0.54688  0  2.336997  0
O  O85  1  0.80498058  0.63316682  0.63316667  1  0  -0.638028  0  2.061859  0  0  -0.566965  0  2.324424  0  0  -0.595729  0  2.305713  0  0  -0.314242  -0.546956  0  2.336746  0
O  O86  1  0.63316861  0.63316745  0.80497966  1  0  -0.637962  0  2.061999  0  0  -0.566895  0  2.324588  0  0  -0.595658  0  2.305879  0  0  -0.314196  -0.546888  0  2.33691  0
O  O87  1  0.63316784  0.63316773  0.92868368  1  0  -0.637984  0  2.06207  0  0  -0.566918  0  2.324653  0  0  -0.595679  0  2.305942  0  0  -0.314206  -0.546915  0  2.336976  0
O  O88  1  0.92868442  0.80498097  0.63316672  1  0  -0.637986  0  2.062038  0  0  -0.566919  0  2.324635  0  0  -0.595682  0  2.305924  0  0  -0.314192  -0.546901  0  2.336953  0
O  O89  1  0.80498097  0.92868444  0.63316669  1  0  -0.637986  0  2.062012  0  0  -0.566909  0  2.324601  0  0  -0.595672  0  2.30589  0  0  -0.314186  -0.546892  0  2.336919  0
O  O90  1  0.63316679  0.92868397  0.63316797  1  0  -0.637943  0  2.0621  0  0  -0.566876  0  2.324695  0  0  -0.595638  0  2.305985  0  0  -0.314171  -0.546867  0  2.337016  0
O  O91  1  0.63316889  0.80497935  0.63316730  1  0  -0.63795  0  2.061988  0  0  -0.56687  0  2.324568  0  0  -0.595635  0  2.305861  0  0  -0.314188  -0.546854  0  2.336885  0
O  O92  1  0.92868478  0.63316646  0.80498107  1  0  -0.637959  0  2.06205  0  0  -0.566889  0  2.324621  0  0  -0.595651  0  2.305913  0  0  -0.314168  -0.546877  0  2.336941  0
O  O93  1  0.80498083  0.63316700  0.92868506  1  0  -0.637976  0  2.062024  0  0  -0.566908  0  2.324598  0  0  -0.595671  0  2.305889  0  0  -0.314196  -0.546898  0  2.336922  0
O  O94  1  0.36683429  0.19501842  0.07131456  1  0  -0.637942  0  2.062105  0  0  -0.566877  0  2.324667  0  0  -0.59564  0  2.305957  0  0  -0.314156  -0.546861  0  2.336984  0
O  O95  1  0.36683401  0.07131464  0.19501858  1  0  -0.637965  0  2.061964  0  0  -0.566906  0  2.324523  0  0  -0.595669  0  2.305814  0  0  -0.314188  -0.546883  0  2.336828  0
O  O96  1  0.19502119  0.36683162  0.36683158  1  0  -0.637935  0  2.061984  0  0  -0.56687  0  2.324562  0  0  -0.595634  0  2.305853  0  0  -0.314186  -0.546861  0  2.336891  0
O  O97  1  0.07131737  0.36683126  0.36683154  1  0  -0.637932  0  2.062003  0  0  -0.566873  0  2.324573  0  0  -0.595634  0  2.305865  0  0  -0.314191  -0.546854  0  2.33688  0
O  O98  1  0.07131672  0.36683173  0.19501984  1  0  -0.637916  0  2.061963  0  0  -0.56684  0  2.324551  0  0  -0.595602  0  2.305843  0  0  -0.314178  -0.546821  0  2.336859  0
O  O99  1  0.19501958  0.36683335  0.07131519  1  0  -0.637963  0  2.062071  0  0  -0.566891  0  2.32466  0  0  -0.595653  0  2.305951  0  0  -0.314207  -0.546881  0  2.336983  0
O  O100  1  0.36683369  0.19501883  0.36683295  1  0  -0.637932  0  2.061993  0  0  -0.566857  0  2.324557  0  0  -0.595621  0  2.305849  0  0  -0.314167  -0.54685  0  2.336885  0
O  O101  1  0.36683363  0.07131530  0.36683294  1  0  -0.637946  0  2.062125  0  0  -0.566884  0  2.324697  0  0  -0.595646  0  2.305988  0  0  -0.31416  -0.546867  0  2.337006  0
O  O102  1  0.19502011  0.07131442  0.36683289  1  0  -0.637986  0  2.062087  0  0  -0.566928  0  2.32465  0  0  -0.595692  0  2.305941  0  0  -0.314228  -0.546909  0  2.336958  0
O  O103  1  0.07131698  0.19501928  0.36683220  1  0  -0.637923  0  2.062002  0  0  -0.566864  0  2.324573  0  0  -0.595628  0  2.305863  0  0  -0.314176  -0.546845  0  2.336879  0
O  O104  1  0.36683364  0.36683257  0.19501926  1  0  -0.637951  0  2.061972  0  0  -0.566877  0  2.324536  0  0  -0.595642  0  2.305829  0  0  -0.314164  -0.54686  0  2.336863  0
O  O105  1  0.36683387  0.36683283  0.07131524  1  0  -0.63796  0  2.062117  0  0  -0.566897  0  2.324688  0  0  -0.59566  0  2.305978  0  0  -0.314154  -0.546878  0  2.337008  0
