# generated using pymatgen
data_CoH30C28(NO3)4
_symmetry_space_group_name_H-M   'P 1'
_cell_length_a   7.07883000
_cell_length_b   9.08973448
_cell_length_c   11.52840000
_cell_angle_alpha   91.78649094
_cell_angle_beta   90.75950000
_cell_angle_gamma   111.64206486
_symmetry_Int_Tables_number   1
_chemical_formula_structural   CoH30C28(NO3)4
_chemical_formula_sum   'Co1 H30 C28 N4 O12'
_cell_volume   688.91962353
_cell_formula_units_Z   1
loop_
 _symmetry_equiv_pos_site_id
 _symmetry_equiv_pos_as_xyz
  1  'x, y, z'
loop_
 _atom_site_type_symbol
 _atom_site_label
 _atom_site_symmetry_multiplicity
 _atom_site_fract_x
 _atom_site_fract_y
 _atom_site_fract_z
 _atom_site_occupancy
  Co  Co0  1  0.50000000  0.50000000  0.00000000  1.0
  H  H1  1  0.99588000  0.56764000  0.71726000  1.0
  H  H2  1  0.00412000  0.43237000  0.28275000  1.0
  H  H3  1  0.21914000  0.60972000  0.03621000  1.0
  H  H4  1  0.78086000  0.39028000  0.96379000  1.0
  H  H5  1  0.17414000  0.44354000  0.08318000  1.0
  H  H6  1  0.82587000  0.55647000  0.91682000  1.0
  H  H7  1  0.59574000  0.91557000  0.74077000  1.0
  H  H8  1  0.40425000  0.08443000  0.25923000  1.0
  H  H9  1  0.82659000  0.47734000  0.55701000  1.0
  H  H10  1  0.17341000  0.52267000  0.44300000  1.0
  H  H11  1  0.87296000  0.00134000  0.23846000  1.0
  H  H12  1  0.12705000  0.99866000  0.76154000  1.0
  H  H13  1  0.72185000  0.70720000  0.19577000  1.0
  H  H14  1  0.27816000  0.29279000  0.80422000  1.0
  H  H15  1  0.54070000  0.76916000  0.86526000  1.0
  H  H16  1  0.45930000  0.23084000  0.13474000  1.0
  H  H17  1  0.87751000  0.18438000  0.07928000  1.0
  H  H18  1  0.12250000  0.81562000  0.92071000  1.0
  H  H19  1  0.70698000  0.24454000  0.67793000  1.0
  H  H20  1  0.29301000  0.75546000  0.32208000  1.0
  H  H21  1  0.56481000  0.06910000  0.59432000  1.0
  H  H22  1  0.43518000  0.93090000  0.40569000  1.0
  H  H23  1  0.02777000  0.20784000  0.63618000  1.0
  H  H24  1  0.97222000  0.79215000  0.36382000  1.0
  H  H25  1  0.89932000  0.22152000  0.50800000  1.0
  H  H26  1  0.10066000  0.77848000  0.49200000  1.0
  H  H27  1  0.88954000  0.90694000  0.60385000  1.0
  H  H28  1  0.11043000  0.09305000  0.39614000  1.0
  H  H29  1  0.76943000  0.92771000  0.47413000  1.0
  H  H30  1  0.23055000  0.07229000  0.52586000  1.0
  C  C31  1  0.68402000  0.48897000  0.53231000  1.0
  C  C32  1  0.31598000  0.51104000  0.46770000  1.0
  C  C33  1  0.57670000  0.53950000  0.61514000  1.0
  C  C34  1  0.42330000  0.46050000  0.38487000  1.0
  C  C35  1  0.39164000  0.55162000  0.58148000  1.0
  C  C36  1  0.60837000  0.44839000  0.41853000  1.0
  C  C37  1  0.27470000  0.61744000  0.66150000  1.0
  C  C38  1  0.72531000  0.38257000  0.33850000  1.0
  C  C39  1  0.64178000  0.56375000  0.74142000  1.0
  C  C40  1  0.35823000  0.43626000  0.25858000  1.0
  C  C41  1  0.80500000  0.95455000  0.15340000  1.0
  C  C42  1  0.19500000  0.04545000  0.84660000  1.0
  C  C43  1  0.71923000  0.79165000  0.13163000  1.0
  C  C44  1  0.28078000  0.20835000  0.86837000  1.0
  C  C45  1  0.62312000  0.82702000  0.94445000  1.0
  C  C46  1  0.37689000  0.17298000  0.05555000  1.0
  C  C47  1  0.71776000  0.99133000  0.95753000  1.0
  C  C48  1  0.28225000  0.00867000  0.04247000  1.0
  C  C49  1  0.80656000  0.05645000  0.06556000  1.0
  C  C50  1  0.19345000  0.94355000  0.93443000  1.0
  C  C51  1  0.73586000  0.10009000  0.85935000  1.0
  C  C52  1  0.26413000  0.89990000  0.14065000  1.0
  C  C53  1  0.70249000  0.12707000  0.64923000  1.0
  C  C54  1  0.29750000  0.87292000  0.35077000  1.0
  C  C55  1  0.89298000  0.14396000  0.58055000  1.0
  C  C56  1  0.10701000  0.85603000  0.41945000  1.0
  C  C57  1  0.90227000  0.98822000  0.53268000  1.0
  C  C58  1  0.09772000  0.01178000  0.46732000  1.0
  N  N59  1  0.68223000  0.03357000  0.75191000  1.0
  N  N60  1  0.31777000  0.96643000  0.24809000  1.0
  N  N61  1  0.62497000  0.72774000  0.02879000  1.0
  N  N62  1  0.37504000  0.27226000  0.97121000  1.0
  O  O63  1  0.83023000  0.61186000  0.77259000  1.0
  O  O64  1  0.16977000  0.38814000  0.22741000  1.0
  O  O65  1  0.49685000  0.53178000  0.81106000  1.0
  O  O66  1  0.50315000  0.46822000  0.18895000  1.0
  O  O67  1  0.34307000  0.75548000  0.70140000  1.0
  O  O68  1  0.65694000  0.24453000  0.29861000  1.0
  O  O69  1  0.08670000  0.51734000  0.67447000  1.0
  O  O70  1  0.91331000  0.48267000  0.32553000  1.0
  O  O71  1  0.80920000  0.24699000  0.87747000  1.0
  O  O72  1  0.19080000  0.75301000  0.12253000  1.0
  O  O73  1  0.22218000  0.50426000  0.01149000  1.0
  O  O74  1  0.77783000  0.49574000  0.98851000  1.0
